CM Length X1 = 5
CM Length X2 = 1
CM Length Y = 2
CM X sections = 10
CM Y sections = 10
CM Rotate X, Y, Z = 0, 0, 0
CM Move X, Y, Z = 0, 0, 0
CE
GW     1    1     -2.5     -1.0       .0     -2.3      -.8       .0  .021715
GW     2    1     -2.3      -.8       .0     -2.1      -.6       .0  .021105
GW     3    1     -2.1      -.6       .0     -1.9      -.4       .0  .020417
GW     4    1     -1.9      -.4       .0     -1.7      -.2       .0  .019635
GW     5    1     -1.7      -.2       .0     -1.5       .0       .0  .018738
GW     6    1     -1.5       .0       .0     -1.3       .2       .0  .017698
GW     7    1     -1.3       .2       .0     -1.1       .4       .0  .016478
GW     8    1     -1.1       .4       .0      -.9       .6       .0  .015029
GW     9    1      -.9       .6       .0      -.7       .8       .0  .013277
GW    10    1      -.7       .8       .0      -.5      1.0       .0  .011117
GW    11    1     -2.0     -1.0       .0    -1.84      -.8       .0  .021715
GW    12    1    -1.84      -.8       .0    -1.68      -.6       .0  .021105
GW    13    1    -1.68      -.6       .0    -1.52      -.4       .0  .020417
GW    14    1    -1.52      -.4       .0    -1.36      -.2       .0  .019635
GW    15    1    -1.36      -.2       .0     -1.2       .0       .0  .018738
GW    16    1     -1.2       .0       .0    -1.04       .2       .0  .017698
GW    17    1    -1.04       .2       .0     -.88       .4       .0  .016478
GW    18    1     -.88       .4       .0     -.72       .6       .0  .015029
GW    19    1     -.72       .6       .0     -.56       .8       .0  .013277
GW    20    1     -.56       .8       .0      -.4      1.0       .0  .011117
GW    21    1     -1.5     -1.0       .0    -1.38      -.8       .0  .021715
GW    22    1    -1.38      -.8       .0    -1.26      -.6       .0  .021105
GW    23    1    -1.26      -.6       .0    -1.14      -.4       .0  .020417
GW    24    1    -1.14      -.4       .0    -1.02      -.2       .0  .019635
GW    25    1    -1.02      -.2       .0      -.9       .0       .0  .018738
GW    26    1      -.9       .0       .0     -.78       .2       .0  .017698
GW    27    1     -.78       .2       .0     -.66       .4       .0  .016478
GW    28    1     -.66       .4       .0     -.54       .6       .0  .015029
GW    29    1     -.54       .6       .0     -.42       .8       .0  .013277
GW    30    1     -.42       .8       .0      -.3      1.0       .0  .011117
GW    31    1     -1.0     -1.0       .0     -.92      -.8       .0  .021715
GW    32    1     -.92      -.8       .0     -.84      -.6       .0  .021105
GW    33    1     -.84      -.6       .0     -.76      -.4       .0  .020417
GW    34    1     -.76      -.4       .0     -.68      -.2       .0  .019635
GW    35    1     -.68      -.2       .0      -.6       .0       .0  .018738
GW    36    1      -.6       .0       .0     -.52       .2       .0  .017698
GW    37    1     -.52       .2       .0     -.44       .4       .0  .016478
GW    38    1     -.44       .4       .0     -.36       .6       .0  .015029
GW    39    1     -.36       .6       .0     -.28       .8       .0  .013277
GW    40    1     -.28       .8       .0      -.2      1.0       .0  .011117
GW    41    1      -.5     -1.0       .0     -.46      -.8       .0  .021715
GW    42    1     -.46      -.8       .0     -.42      -.6       .0  .021105
GW    43    1     -.42      -.6       .0     -.38      -.4       .0  .020417
GW    44    1     -.38      -.4       .0     -.34      -.2       .0  .019635
GW    45    1     -.34      -.2       .0      -.3       .0       .0  .018738
GW    46    1      -.3       .0       .0     -.26       .2       .0  .017698
GW    47    1     -.26       .2       .0     -.22       .4       .0  .016478
GW    48    1     -.22       .4       .0     -.18       .6       .0  .015029
GW    49    1     -.18       .6       .0     -.14       .8       .0  .013277
GW    50    1     -.14       .8       .0      -.1      1.0       .0  .011117
GW    51    1       .0     -1.0       .0       .0      -.8       .0  .021715
GW    52    1       .0      -.8       .0       .0      -.6       .0  .021105
GW    53    1       .0      -.6       .0       .0      -.4       .0  .020417
GW    54    1       .0      -.4       .0       .0      -.2       .0  .019635
GW    55    1       .0      -.2       .0       .0       .0       .0  .018738
GW    56    1       .0       .0       .0       .0       .2       .0  .017698
GW    57    1       .0       .2       .0       .0       .4       .0  .016478
GW    58    1       .0       .4       .0       .0       .6       .0  .015029
GW    59    1       .0       .6       .0       .0       .8       .0  .013277
GW    60    1       .0       .8       .0       .0      1.0       .0  .011117
GW    61    1       .5     -1.0       .0      .46      -.8       .0  .021715
GW    62    1      .46      -.8       .0      .42      -.6       .0  .021105
GW    63    1      .42      -.6       .0      .38      -.4       .0  .020417
GW    64    1      .38      -.4       .0      .34      -.2       .0  .019635
GW    65    1      .34      -.2       .0       .3       .0       .0  .018738
GW    66    1       .3       .0       .0      .26       .2       .0  .017698
GW    67    1      .26       .2       .0      .22       .4       .0  .016478
GW    68    1      .22       .4       .0      .18       .6       .0  .015029
GW    69    1      .18       .6       .0      .14       .8       .0  .013277
GW    70    1      .14       .8       .0       .1      1.0       .0  .011117
GW    71    1      1.0     -1.0       .0      .92      -.8       .0  .021715
GW    72    1      .92      -.8       .0      .84      -.6       .0  .021105
GW    73    1      .84      -.6       .0      .76      -.4       .0  .020417
GW    74    1      .76      -.4       .0      .68      -.2       .0  .019635
GW    75    1      .68      -.2       .0       .6       .0       .0  .018738
GW    76    1       .6       .0       .0      .52       .2       .0  .017698
GW    77    1      .52       .2       .0      .44       .4       .0  .016478
GW    78    1      .44       .4       .0      .36       .6       .0  .015029
GW    79    1      .36       .6       .0      .28       .8       .0  .013277
GW    80    1      .28       .8       .0       .2      1.0       .0  .011117
GW    81    1      1.5     -1.0       .0     1.38      -.8       .0  .021715
GW    82    1     1.38      -.8       .0     1.26      -.6       .0  .021105
GW    83    1     1.26      -.6       .0     1.14      -.4       .0  .020417
GW    84    1     1.14      -.4       .0     1.02      -.2       .0  .019635
GW    85    1     1.02      -.2       .0       .9       .0       .0  .018738
GW    86    1       .9       .0       .0      .78       .2       .0  .017698
GW    87    1      .78       .2       .0      .66       .4       .0  .016478
GW    88    1      .66       .4       .0      .54       .6       .0  .015029
GW    89    1      .54       .6       .0      .42       .8       .0  .013277
GW    90    1      .42       .8       .0       .3      1.0       .0  .011117
GW    91    1      2.0     -1.0       .0     1.84      -.8       .0  .021715
GW    92    1     1.84      -.8       .0     1.68      -.6       .0  .021105
GW    93    1     1.68      -.6       .0     1.52      -.4       .0  .020417
GW    94    1     1.52      -.4       .0     1.36      -.2       .0  .019635
GW    95    1     1.36      -.2       .0      1.2       .0       .0  .018738
GW    96    1      1.2       .0       .0     1.04       .2       .0  .017698
GW    97    1     1.04       .2       .0      .88       .4       .0  .016478
GW    98    1      .88       .4       .0      .72       .6       .0  .015029
GW    99    1      .72       .6       .0      .56       .8       .0  .013277
GW   100    1      .56       .8       .0       .4      1.0       .0  .011117
GW   101    1      2.5     -1.0       .0      2.3      -.8       .0  .021715
GW   102    1      2.3      -.8       .0      2.1      -.6       .0  .021105
GW   103    1      2.1      -.6       .0      1.9      -.4       .0  .020417
GW   104    1      1.9      -.4       .0      1.7      -.2       .0  .019635
GW   105    1      1.7      -.2       .0      1.5       .0       .0  .018738
GW   106    1      1.5       .0       .0      1.3       .2       .0  .017698
GW   107    1      1.3       .2       .0      1.1       .4       .0  .016478
GW   108    1      1.1       .4       .0       .9       .6       .0  .015029
GW   109    1       .9       .6       .0       .7       .8       .0  .013277
GW   110    1       .7       .8       .0       .5      1.0       .0  .011117
GW   111    1     -2.5     -1.0       .0     -2.0     -1.0       .0  .021995
GW   112    1     -2.0     -1.0       .0     -1.5     -1.0       .0  .021995
GW   113    1     -1.5     -1.0       .0     -1.0     -1.0       .0  .021995
GW   114    1     -1.0     -1.0       .0      -.5     -1.0       .0  .021995
GW   115    1      -.5     -1.0       .0       .0     -1.0       .0  .021995
GW   116    1       .0     -1.0       .0       .5     -1.0       .0  .021995
GW   117    1       .5     -1.0       .0      1.0     -1.0       .0  .021995
GW   118    1      1.0     -1.0       .0      1.5     -1.0       .0  .021995
GW   119    1      1.5     -1.0       .0      2.0     -1.0       .0  .021995
GW   120    1      2.0     -1.0       .0      2.5     -1.0       .0  .021995
GW   121    1     -2.3      -.8       .0    -1.84      -.8       .0  .021419
GW   122    1    -1.84      -.8       .0    -1.38      -.8       .0  .021419
GW   123    1    -1.38      -.8       .0     -.92      -.8       .0  .021419
GW   124    1     -.92      -.8       .0     -.46      -.8       .0  .021419
GW   125    1     -.46      -.8       .0       .0      -.8       .0  .021419
GW   126    1       .0      -.8       .0      .46      -.8       .0  .021419
GW   127    1      .46      -.8       .0      .92      -.8       .0  .021419
GW   128    1      .92      -.8       .0     1.38      -.8       .0  .021419
GW   129    1     1.38      -.8       .0     1.84      -.8       .0  .021419
GW   130    1     1.84      -.8       .0      2.3      -.8       .0  .021419
GW   131    1     -2.1      -.6       .0    -1.68      -.6       .0  .020772
GW   132    1    -1.68      -.6       .0    -1.26      -.6       .0  .020772
GW   133    1    -1.26      -.6       .0     -.84      -.6       .0  .020772
GW   134    1     -.84      -.6       .0     -.42      -.6       .0  .020772
GW   135    1     -.42      -.6       .0       .0      -.6       .0  .020772
GW   136    1       .0      -.6       .0      .42      -.6       .0  .020772
GW   137    1      .42      -.6       .0      .84      -.6       .0  .020772
GW   138    1      .84      -.6       .0     1.26      -.6       .0  .020772
GW   139    1     1.26      -.6       .0     1.68      -.6       .0  .020772
GW   140    1     1.68      -.6       .0      2.1      -.6       .0  .020772
GW   141    1     -1.9      -.4       .0    -1.52      -.4       .0  .020039
GW   142    1    -1.52      -.4       .0    -1.14      -.4       .0  .020039
GW   143    1    -1.14      -.4       .0     -.76      -.4       .0  .020039
GW   144    1     -.76      -.4       .0     -.38      -.4       .0  .020039
GW   145    1     -.38      -.4       .0       .0      -.4       .0  .020039
GW   146    1       .0      -.4       .0      .38      -.4       .0  .020039
GW   147    1      .38      -.4       .0      .76      -.4       .0  .020039
GW   148    1      .76      -.4       .0     1.14      -.4       .0  .020039
GW   149    1     1.14      -.4       .0     1.52      -.4       .0  .020039
GW   150    1     1.52      -.4       .0      1.9      -.4       .0  .020039
GW   151    1     -1.7      -.2       .0    -1.36      -.2       .0  .019202
GW   152    1    -1.36      -.2       .0    -1.02      -.2       .0  .019202
GW   153    1    -1.02      -.2       .0     -.68      -.2       .0  .019202
GW   154    1     -.68      -.2       .0     -.34      -.2       .0  .019202
GW   155    1     -.34      -.2       .0       .0      -.2       .0  .019202
GW   156    1       .0      -.2       .0      .34      -.2       .0  .019202
GW   157    1      .34      -.2       .0      .68      -.2       .0  .019202
GW   158    1      .68      -.2       .0     1.02      -.2       .0  .019202
GW   159    1     1.02      -.2       .0     1.36      -.2       .0  .019202
GW   160    1     1.36      -.2       .0      1.7      -.2       .0  .019202
GW   161    1     -1.5       .0       .0     -1.2       .0       .0  .018238
GW   162    1     -1.2       .0       .0      -.9       .0       .0  .018238
GW   163    1      -.9       .0       .0      -.6       .0       .0  .018238
GW   164    1      -.6       .0       .0      -.3       .0       .0  .018238
GW   165    1      -.3       .0       .0       .0       .0       .0  .018238
GW   166    1       .0       .0       .0       .3       .0       .0  .018238
GW   167    1       .3       .0       .0       .6       .0       .0  .018238
GW   168    1       .6       .0       .0       .9       .0       .0  .018238
GW   169    1       .9       .0       .0      1.2       .0       .0  .018238
GW   170    1      1.2       .0       .0      1.5       .0       .0  .018238
GW   171    1     -1.3       .2       .0    -1.04       .2       .0  .017113
GW   172    1    -1.04       .2       .0     -.78       .2       .0  .017113
GW   173    1     -.78       .2       .0     -.52       .2       .0  .017113
GW   174    1     -.52       .2       .0     -.26       .2       .0  .017113
GW   175    1     -.26       .2       .0       .0       .2       .0  .017113
GW   176    1       .0       .2       .0      .26       .2       .0  .017113
GW   177    1      .26       .2       .0      .52       .2       .0  .017113
GW   178    1      .52       .2       .0      .78       .2       .0  .017113
GW   179    1      .78       .2       .0     1.04       .2       .0  .017113
GW   180    1     1.04       .2       .0      1.3       .2       .0  .017113
GW   181    1     -1.1       .4       .0     -.88       .4       .0  .015786
GW   182    1     -.88       .4       .0     -.66       .4       .0  .015786
GW   183    1     -.66       .4       .0     -.44       .4       .0  .015786
GW   184    1     -.44       .4       .0     -.22       .4       .0  .015786
GW   185    1     -.22       .4       .0       .0       .4       .0  .015786
GW   186    1       .0       .4       .0      .22       .4       .0  .015786
GW   187    1      .22       .4       .0      .44       .4       .0  .015786
GW   188    1      .44       .4       .0      .66       .4       .0  .015786
GW   189    1      .66       .4       .0      .88       .4       .0  .015786
GW   190    1      .88       .4       .0      1.1       .4       .0  .015786
GW   191    1      -.9       .6       .0     -.72       .6       .0  .014196
GW   192    1     -.72       .6       .0     -.54       .6       .0  .014196
GW   193    1     -.54       .6       .0     -.36       .6       .0  .014196
GW   194    1     -.36       .6       .0     -.18       .6       .0  .014196
GW   195    1     -.18       .6       .0       .0       .6       .0  .014196
GW   196    1       .0       .6       .0      .18       .6       .0  .014196
GW   197    1      .18       .6       .0      .36       .6       .0  .014196
GW   198    1      .36       .6       .0      .54       .6       .0  .014196
GW   199    1      .54       .6       .0      .72       .6       .0  .014196
GW   200    1      .72       .6       .0       .9       .6       .0  .014196
GW   201    1      -.7       .8       .0     -.56       .8       .0  .012256
GW   202    1     -.56       .8       .0     -.42       .8       .0  .012256
GW   203    1     -.42       .8       .0     -.28       .8       .0  .012256
GW   204    1     -.28       .8       .0     -.14       .8       .0  .012256
GW   205    1     -.14       .8       .0       .0       .8       .0  .012256
GW   206    1       .0       .8       .0      .14       .8       .0  .012256
GW   207    1      .14       .8       .0      .28       .8       .0  .012256
GW   208    1      .28       .8       .0      .42       .8       .0  .012256
GW   209    1      .42       .8       .0      .56       .8       .0  .012256
GW   210    1      .56       .8       .0       .7       .8       .0  .012256
GW   211    1      -.5      1.0       .0      -.4      1.0       .0  .009836
GW   212    1      -.4      1.0       .0      -.3      1.0       .0  .009836
GW   213    1      -.3      1.0       .0      -.2      1.0       .0  .009836
GW   214    1      -.2      1.0       .0      -.1      1.0       .0  .009836
GW   215    1      -.1      1.0       .0       .0      1.0       .0  .009836
GW   216    1       .0      1.0       .0       .1      1.0       .0  .009836
GW   217    1       .1      1.0       .0       .2      1.0       .0  .009836
GW   218    1       .2      1.0       .0       .3      1.0       .0  .009836
GW   219    1       .3      1.0       .0       .4      1.0       .0  .009836
GW   220    1       .4      1.0       .0       .5      1.0       .0  .009836
GE 0
