CM 
CE
GW	1	1	0.015	0	0.023	0.015	0	-0.021	5.e-4
GW	2	1	-0.015	0	0.023	-0.015	0	-0.021	5.e-4
GW	3	1	-0.015	0	0.023	0.015	0	0.023	5.e-4
GW	4	1	-0.015	0	-0.021	-8.e-3	0	-0.021	5.e-4
GW	5	1	-8.e-3	0	-0.021	-8.e-3	0	-4.e-3	5.e-4
GW	6	1	0.015	0	-0.021	0.01	0	-0.021	5.e-4
GW	7	1	0.01	0	-0.021	0.01	0	-4.e-3	5.e-4
GW	8	1	-8.e-3	0	-4.e-3	0.01	0	-4.e-3	5.e-4
GW	9	1	-0.019	0	0.031	0.022	0	0.031	1.89738e-3
GW	10	1	5.e-3	0	-0.01	5.e-3	0	-0.035	1.89738e-3
GW	11	1	-3.e-3	0	-0.01	-3.e-3	0	-0.035	1.89738e-3
GW	12	1	-3.e-3	0	-0.01	5.e-3	0	-0.01	1.89738e-3
GW	13	1	0.022	0	0.031	0.022	0	-0.035	1.89738e-3
GW	14	1	-0.019	0	0.031	-0.019	0	-0.035	1.89738e-3
GW	15	1	-3.e-3	0	-0.035	-0.019	0	-0.035	1.89738e-3
GW	16	1	0.022	0	-0.035	5.e-3	0	-0.035	1.89738e-3
GW	17	1	-3.e-3	0	-0.035	5.e-3	0	-0.035	1.89738e-3
GE	0
GN	-1
EK
EX	0	17	1	0	1	0	0
FR	0	0	0	0	2400	0
EN
